45
/var/lib/cwl/stge8c8e67a-755e-4887-abb1-ce9a89db4bb6/ligand_NEW.pdb
C          0.41400       28.07000        4.10300
C          1.19500       26.99900        4.83200
C          2.66100       27.14000        4.53200
C          3.17400       28.45700        4.79400
C          2.36700       29.55300        4.78000
C          2.97300       30.90600        5.11600
C          2.20700       32.03000        4.45700
C          0.73300       31.96200        4.89800
C          0.12400       30.59700        4.51400
C          0.91200       29.48000        4.47600
C         -1.31600       30.58300        4.25100
C         -2.10200       31.67500        4.31000
C         -1.53500       33.03900        4.66400
C         -0.05600       33.06600        4.26100
C          0.38700       34.50900        4.57200
C         -0.89900       35.29900        4.31100
C         -2.00100       34.28200        3.90000
O          3.37500       26.21200        4.16200
H         -0.63500       27.98700        4.38600
H          0.54800       27.92700        3.03100
H          0.85400       26.01800        4.50200
H          1.03600       27.10600        5.90500
H          4.23500       28.58100        5.00900
H          4.00000       30.92600        4.75200
H          2.93300       31.04600        6.19600
H          2.27000       31.93100        3.37300
H          2.63400       32.98800        4.75300
H          0.69200       32.07900        5.98100
H         -1.78000       29.63100        3.99200
H         -3.16700       31.57800        4.09900
H          0.12300       32.85000        3.20800
H          1.22900       34.84200        3.96600
H          0.77300       34.63400        5.58400
H         -0.74200       36.03000        3.51800
H         -1.19900       35.84300        5.20700
C         -1.72500       33.22800        6.18900
H         -2.78700       33.17800        6.43100
H         -1.19200       32.44000        6.72100
H         -1.32900       34.19900        6.48600
C         -2.03400       34.05000        2.41200
H         -1.03400       33.79100        2.06400
H         -2.72100       33.23400        2.18800
H         -2.37000       34.95800        1.91100
O         -3.25700       34.79700        4.34500
H         -3.48600       35.57100        3.82600
