
     RDKit          3D

 28 30  0  0  0  0  0  0  0  0999 V2000
    2.2626    0.7870   -1.3789 N   0  0  0  0  0  0  0  0  0  0  0  0
    1.0615    0.3798   -0.6533 C   0  0  0  0  0  0  0  0  0  0  0  0
    0.5796    1.5416    0.2450 C   0  0  0  0  0  0  0  0  0  0  0  0
   -0.6918    1.1291    1.0105 C   0  0  0  0  0  0  0  0  0  0  0  0
   -0.3796   -0.1005    1.8823 C   0  0  0  0  0  0  0  0  0  0  0  0
    0.0909   -1.2711    1.0005 C   0  0  0  0  0  0  0  0  0  0  0  0
    1.3595   -0.8501    0.2351 C   0  0  0  0  0  0  0  0  0  0  0  0
   -1.0141   -1.6173   -0.0098 C   0  0  0  0  0  0  0  0  0  0  0  0
   -1.3186   -0.3943   -0.8840 C   0  0  0  0  0  0  0  0  0  0  0  0
   -2.2984   -0.7121   -1.7667 F   0  0  0  0  0  0  0  0  0  0  0  0
   -1.7916    0.7660    0.0002 C   0  0  0  0  0  0  0  0  0  0  0  0
   -0.0571    0.0199   -1.6521 C   0  0  0  0  0  0  0  0  0  0  0  0
    3.0145    0.9987   -0.7234 H   0  0  0  0  0  0  0  0  0  0  0  0
    2.6010    0.0194   -1.9588 H   0  0  0  0  0  0  0  0  0  0  0  0
    0.3694    2.4331   -0.3609 H   0  0  0  0  0  0  0  0  0  0  0  0
    1.3624    1.8244    0.9612 H   0  0  0  0  0  0  0  0  0  0  0  0
   -1.0281    1.9572    1.6441 H   0  0  0  0  0  0  0  0  0  0  0  0
    0.3951    0.1490    2.6177 H   0  0  0  0  0  0  0  0  0  0  0  0
   -1.2727   -0.3940    2.4475 H   0  0  0  0  0  0  0  0  0  0  0  0
    0.3082   -2.1433    1.6269 H   0  0  0  0  0  0  0  0  0  0  0  0
    1.7134   -1.6896   -0.3780 H   0  0  0  0  0  0  0  0  0  0  0  0
    2.1606   -0.6223    0.9507 H   0  0  0  0  0  0  0  0  0  0  0  0
   -1.9236   -1.9413    0.5110 H   0  0  0  0  0  0  0  0  0  0  0  0
   -0.7089   -2.4619   -0.6399 H   0  0  0  0  0  0  0  0  0  0  0  0
   -2.7159    0.4875    0.5213 H   0  0  0  0  0  0  0  0  0  0  0  0
   -2.0443    1.6332   -0.6224 H   0  0  0  0  0  0  0  0  0  0  0  0
    0.2539   -0.7972   -2.3166 H   0  0  0  0  0  0  0  0  0  0  0  0
   -0.2881    0.8691   -2.3089 H   0  0  0  0  0  0  0  0  0  0  0  0
  1  2  1  0
  2  3  1  0
  3  4  1  0
  4  5  1  0
  5  6  1  0
  6  7  1  0
  6  8  1  0
  8  9  1  0
  9 10  1  0
  9 11  1  0
  9 12  1  0
  7  2  1  0
 12  2  1  0
 11  4  1  0
  1 13  1  0
  1 14  1  0
  3 15  1  0
  3 16  1  0
  4 17  1  0
  5 18  1  0
  5 19  1  0
  6 20  1  0
  7 21  1  0
  7 22  1  0
  8 23  1  0
  8 24  1  0
 11 25  1  0
 11 26  1  0
 12 27  1  0
 12 28  1  0
M  END
$$$$
