5umx_ligand
     RDKit          3D

 27 29  0  0  0  0  0  0  0  0999 V2000
   10.7895   -4.9928    7.6543 N   0  0  0  0  0  0  0  0  0  0  0  0
   11.6166   -4.8652    8.7009 C   0  0  0  0  0  0  0  0  0  0  0  0
   12.4378   -5.7862    8.9384 O   0  0  0  0  0  0  0  0  0  0  0  0
   11.5555   -3.7617    9.4751 N   0  0  0  0  0  0  0  0  0  0  0  0
   10.7017   -2.7646    9.2585 C   0  0  0  0  0  0  0  0  0  0  0  0
   10.6551   -1.7383    9.9904 O   0  0  0  0  0  0  0  0  0  0  0  0
    9.8340   -2.8651    8.1861 C   0  0  0  0  0  0  0  0  0  0  0  0
    8.9499   -1.9100    7.9025 N   0  0  0  0  0  0  0  0  0  0  0  0
    8.1473   -2.0943    6.8409 C   0  0  0  0  0  0  0  0  0  0  0  0
    7.2259   -1.0983    6.5501 C   0  0  0  0  0  0  0  0  0  0  0  0
    6.3525   -1.1875    5.4844 C   0  0  0  0  0  0  0  0  0  0  0  0
    5.3616   -0.1124    5.1745 C   0  0  0  0  0  0  0  0  0  0  0  0
    6.4440   -2.3361    4.7110 C   0  0  0  0  0  0  0  0  0  0  0  0
    5.5126   -2.4621    3.5511 C   0  0  0  0  0  0  0  0  0  0  0  0
    7.3538   -3.3375    4.9843 C   0  0  0  0  0  0  0  0  0  0  0  0
    8.2053   -3.2284    6.0397 C   0  0  0  0  0  0  0  0  0  0  0  0
    9.0793   -4.2324    6.2738 N   0  0  0  0  0  0  0  0  0  0  0  0
    9.8911   -4.0355    7.3560 C   0  0  0  0  0  0  0  0  0  0  0  0
    9.2003   -5.4145    5.4934 C   0  0  0  0  0  0  0  0  0  0  0  0
   10.1742   -5.2987    4.3361 C   0  0  2  0  0  0  0  0  0  0  0  0
    9.8804   -4.3171    3.4313 O   0  0  0  0  0  0  0  0  0  0  0  0
   10.2341   -6.6815    3.6936 C   0  0  2  0  0  0  0  0  0  0  0  0
   10.1259   -7.6608    4.6757 O   0  0  0  0  0  0  0  0  0  0  0  0
   11.5104   -6.8519    2.8990 C   0  0  2  0  0  0  0  0  0  0  0  0
   11.7176   -5.7055    2.1345 O   0  0  0  0  0  0  0  0  0  0  0  0
   11.4449   -8.0263    1.9543 C   0  0  0  0  0  0  0  0  0  0  0  0
   10.4249   -7.9112    1.0410 O   0  0  0  0  0  0  0  0  0  0  0  0
  1  2  1  0
  1 18  2  0
  2  3  2  0
  2  4  1  0
  4  5  1  0
  5  6  2  0
  5  7  1  0
  7  8  2  0
  7 18  1  0
  8  9  1  0
  9 10  1  0
  9 16  2  0
 10 11  2  0
 12 11  1  6
 11 13  1  0
 14 13  1  6
 13 15  2  0
 15 16  1  0
 16 17  1  0
 17 18  1  0
 19 17  1  1
 19 20  1  0
 20 21  1  6
 20 22  1  0
 22 23  1  1
 22 24  1  0
 24 25  1  6
 24 26  1  0
 26 27  1  6
M  END
$$$$
