47
5umx_ligand
N         10.67900       -4.95100        7.96300
C         11.44500       -4.75400        9.07400
O         12.25200       -5.66100        9.44100
N         11.36400       -3.62400        9.81300
C         10.52300       -2.62200        9.50900
O         10.46400       -1.59400       10.23300
C          9.66300       -2.75800        8.29700
N          8.79800       -1.77700        7.94000
C          8.03000       -1.95500        6.83400
C          7.16700       -0.92500        6.49700
C          6.35800       -1.02800        5.37900
C          5.40900        0.09900        5.03300
C          6.41300       -2.26900        4.56500
C          5.52100       -2.41800        3.36800
C          7.27100       -3.30600        4.89600
C          8.10500       -3.21300        6.01200
N          8.99400       -4.26200        6.38200
C          9.78100       -4.03300        7.53300
C          9.11800       -5.55800        5.63800
C          9.75700       -5.52100        4.23300
O          8.76700       -5.24500        3.24500
C         10.36800       -6.80500        3.68000
O         10.85100       -7.63800        4.74000
C         11.47300       -6.47200        2.64400
O         11.06500       -5.42700        1.72900
C         11.92500       -7.69000        1.82700
O         13.15400       -8.22900        2.33500
H         11.96440       -3.52930       10.63210
H          7.12500       -0.02870        7.11580
H          4.70970        0.24890        5.85560
H          5.97830        1.01360        4.86720
H          4.85800       -0.15670        4.12800
H          4.47930       -2.35290        3.68240
H          5.73690       -1.62290        2.65440
H          5.70100       -3.38610        2.90060
H          7.29500       -4.20380        4.27840
H          8.09620       -5.90500        5.48450
H          9.77880       -6.17920        6.24260
H         10.53890       -4.77880        4.39370
H          9.17860       -5.22520        2.37800
H          9.59380       -7.37090        3.16180
H         11.23020       -8.43820        4.36920
H         12.31630       -6.12680        3.24220
H         11.77520       -5.25250        1.10710
H         12.08280       -7.37730        0.79480
H         11.15470       -8.45840        1.89300
H         13.41210       -8.98760        1.80640
